HABtk - High Altitude Ballooning Toolkit
By AeroDyne Labs
http://www.aerodynelabs.com